Template: swat/smb_conf_warn
Type: note
_Description: Configuration file rewritten by SWAT
 SWAT will rewrite the smb.conf file. It will rearrange the entries and
 delete all comments, include= and copy= options. If you use a carefully
 crafted smb.conf, you should probably avoid using SWAT.
